cs_full_output_folder/data/smiles/5113.pdb
     RDKit          3D

 31 34  0  0  0  0  0  0  0  0999 V2000
   71.5255   47.3137   58.9598 C   0  0  0  0  0  0  0  0  0  0  0  0
   70.5820   47.9667   58.1956 C   0  0  0  0  0  0  0  0  0  0  0  0
   69.7880   47.3082   57.3042 C   0  0  0  0  0  0  0  0  0  0  0  0
   69.9801   45.9196   57.2024 C   0  0  0  0  0  0  0  0  0  0  0  0
   70.9182   45.2489   57.9586 C   0  0  0  0  0  0  0  0  0  0  0  0
   71.7013   45.9529   58.8483 C   0  0  0  0  0  0  0  0  0  0  0  0
   72.6460   45.3250   59.6193 F   0  0  0  0  0  0  0  0  0  0  0  0
   72.2651   47.8205   61.1334 O   0  0  0  0  0  0  0  0  0  0  0  0
   72.3675   48.0752   59.9151 C   0  0  0  0  0  0  0  0  0  0  0  0
   73.2747   49.0730   59.4769 N   0  0  0  0  0  0  0  0  0  0  0  0
   74.0312   49.7289   60.5131 C   0  0  0  0  0  0  0  0  0  0  0  0
   75.3077   50.3371   59.9374 C   0  0  0  0  0  0  0  0  0  0  0  0
   76.0036   49.3320   59.0829 C   0  0  0  0  0  0  0  0  0  0  0  0
   75.7093   49.5130   57.6436 N   0  0  2  0  0  0  0  0  0  0  0  0
   74.5517   48.6879   57.4074 C   0  0  0  0  0  0  0  0  0  0  0  0
   73.3673   49.3554   58.0661 C   0  0  0  0  0  0  0  0  0  0  0  0
   76.8981   49.1055   56.9685 C   0  0  0  0  0  0  0  0  0  0  0  0
   77.2638   49.8282   55.7317 C   0  0  0  0  0  0  0  0  0  0  0  0
   77.4477   49.0885   54.5977 O   0  0  0  0  0  0  0  0  0  0  0  0
   68.7468   47.9621   56.4529 C   0  0  0  0  0  0  0  0  0  0  0  0
   69.1393   48.1869   55.0667 C   0  0  0  0  0  0  0  0  0  0  0  0
   70.0144   49.2035   54.7614 N   0  0  0  0  0  0  0  0  0  0  0  0
   70.4466   49.4305   53.5415 N   0  0  0  0  0  0  0  0  0  0  0  0
   70.0697   48.6896   52.4934 C   0  0  0  0  0  0  0  0  0  0  0  0
   70.4899   48.9125   51.3178 O   0  0  0  0  0  0  0  0  0  0  0  0
   69.1901   47.6429   52.6910 C   0  0  0  0  0  0  0  0  0  0  0  0
   68.7827   46.8859   51.6147 C   0  0  0  0  0  0  0  0  0  0  0  0
   67.8911   45.8572   51.8199 C   0  0  0  0  0  0  0  0  0  0  0  0
   67.4430   45.6311   53.1097 C   0  0  0  0  0  0  0  0  0  0  0  0
   67.8622   46.3992   54.1743 C   0  0  0  0  0  0  0  0  0  0  0  0
   68.7506   47.4280   53.9937 C   0  0  0  0  0  0  0  0  0  0  0  0
  8  9  2  0
  9  1  1  0
  9 10  1  0
  1  2  2  0
  1  6  1  0
  2  3  1  0
  3 20  1  0
  3  4  2  0
 20 21  1  0
 21 22  2  0
 21 31  1  0
 22 23  1  0
 23 24  1  0
 24 25  2  0
 24 26  1  0
 26 27  1  0
 26 31  2  0
 27 28  2  0
 28 29  1  0
 29 30  2  0
 30 31  1  0
  4  5  1  0
  5  6  2  0
  6  7  1  0
 10 11  1  0
 10 16  1  0
 11 12  1  0
 12 13  1  0
 13 14  1  0
 14 17  1  6
 14 15  1  0
 17 18  1  0
 18 19  1  0
 15 16  1  0
M  CHG  1  14   1
M  END
>  <minimizedAffinity>  (1) 
-9.76198

$$$$
