cs_full_output_folder/data/smiles/326.pdb
     RDKit          3D

 33 37  0  0  0  0  0  0  0  0999 V2000
   71.6658   47.0389   58.9236 C   0  0  0  0  0  0  0  0  0  0  0  0
   70.6707   47.7533   58.2367 C   0  0  0  0  0  0  0  0  0  0  0  0
   69.7798   47.1197   57.4153 C   0  0  0  0  0  0  0  0  0  0  0  0
   69.9069   45.7409   57.2925 C   0  0  0  0  0  0  0  0  0  0  0  0
   70.8752   45.0153   57.9539 C   0  0  0  0  0  0  0  0  0  0  0  0
   71.7688   45.6844   58.7850 C   0  0  0  0  0  0  0  0  0  0  0  0
   72.7194   44.9623   59.4336 F   0  0  0  0  0  0  0  0  0  0  0  0
   72.2625   47.9564   60.9810 O   0  0  0  0  0  0  0  0  0  0  0  0
   72.6003   47.7551   59.7937 C   0  0  0  0  0  0  0  0  0  0  0  0
   73.8550   48.2208   59.3419 N   0  0  0  0  0  0  0  0  0  0  0  0
   74.6525   48.9100   60.3323 C   0  0  0  0  0  0  0  0  0  0  0  0
   74.5953   50.4015   60.0397 C   0  0  0  0  0  0  0  0  0  0  0  0
   73.4472   50.7124   59.1298 C   0  0  0  0  0  0  0  0  0  0  0  0
   73.7502   50.3949   57.7283 N   0  0  0  0  0  0  0  0  0  0  0  0
   73.1675   51.2980   56.8352 C   0  0  0  0  0  0  0  0  0  0  0  0
   72.4453   52.2617   57.2820 O   0  0  0  0  0  0  0  0  0  0  0  0
   74.5413   49.3008   57.2347 C   0  0  0  0  0  0  0  0  0  0  0  0
   74.2334   47.9853   57.9711 C   0  0  0  0  0  0  0  0  0  0  0  0
   73.3112   51.2473   55.3690 C   0  0  0  0  0  0  0  0  0  0  0  0
   72.6803   52.3600   54.5677 C   0  0  0  0  0  0  0  0  0  0  0  0
   74.1762   52.3474   54.7735 C   0  0  0  0  0  0  0  0  0  0  0  0
   68.6914   47.7727   56.6515 C   0  0  0  0  0  0  0  0  0  0  0  0
   69.1663   48.0474   55.2886 C   0  0  0  0  0  0  0  0  0  0  0  0
   70.0977   49.0199   55.1444 N   0  0  0  0  0  0  0  0  0  0  0  0
   70.6386   49.3163   53.9810 N   0  0  0  0  0  0  0  0  0  0  0  0
   70.3102   48.6789   52.8444 C   0  0  0  0  0  0  0  0  0  0  0  0
   70.8305   48.9638   51.7333 O   0  0  0  0  0  0  0  0  0  0  0  0
   69.3646   47.6788   52.9286 C   0  0  0  0  0  0  0  0  0  0  0  0
   68.9532   46.9805   51.8078 C   0  0  0  0  0  0  0  0  0  0  0  0
   67.9982   45.9936   51.8831 C   0  0  0  0  0  0  0  0  0  0  0  0
   67.4419   45.7035   53.1302 C   0  0  0  0  0  0  0  0  0  0  0  0
   67.8296   46.3818   54.2706 C   0  0  0  0  0  0  0  0  0  0  0  0
   68.7843   47.3589   54.1691 C   0  0  0  0  0  0  0  0  0  0  0  0
  8  9  2  0
  9  1  1  0
  9 10  1  0
  1  2  2  0
  1  6  1  0
  2  3  1  0
  3 22  1  0
  3  4  2  0
 22 23  1  0
 23 24  2  0
 23 33  1  0
 24 25  1  0
 25 26  1  0
 26 27  2  0
 26 28  1  0
 28 29  1  0
 28 33  2  0
 29 30  2  0
 30 31  1  0
 31 32  2  0
 32 33  1  0
  4  5  1  0
  5  6  2  0
  6  7  1  0
 10 11  1  0
 10 18  1  0
 11 12  1  0
 12 13  1  0
 13 14  1  0
 14 15  1  0
 14 17  1  0
 15 16  2  0
 15 19  1  0
 19 20  1  0
 19 21  1  0
 20 21  1  0
 17 18  1  0
M  END
>  <minimizedAffinity>  (1) 
-9.33814

$$$$
