cs_full_output_folder/data/smiles/196.pdb
     RDKit          3D

 25 28  0  0  0  0  0  0  0  0999 V2000
   70.4584   51.5974   55.9131 N   0  0  0  0  0  0  0  0  0  0  0  0
   69.3215   51.1589   56.6091 C   0  0  0  0  0  0  0  0  0  0  0  0
   68.0499   51.6141   56.2367 C   0  0  0  0  0  0  0  0  0  0  0  0
   66.8831   51.2106   56.8570 C   0  0  0  0  0  0  0  0  0  0  0  0
   66.9209   50.3299   57.8852 C   0  0  0  0  0  0  0  0  0  0  0  0
   68.1381   49.8521   58.2910 C   0  0  0  0  0  0  0  0  0  0  0  0
   69.3129   50.2648   57.6588 C   0  0  0  0  0  0  0  0  0  0  0  0
   71.3747   50.5302   55.4059 C   0  0  0  0  0  0  0  0  0  0  0  0
   70.1997   49.1249   51.0614 O   0  0  0  0  0  0  0  0  0  0  0  0
   70.1317   48.9869   52.3073 C   0  0  0  0  0  0  0  0  0  0  0  0
   70.7864   49.8249   53.1181 N   0  0  0  0  0  0  0  0  0  0  0  0
   70.6926   49.6512   54.4441 C   0  0  0  0  0  0  0  0  0  0  0  0
   69.9423   48.6373   54.9651 N   0  0  0  0  0  0  0  0  0  0  0  0
   69.2883   47.8004   54.1652 C   0  0  0  0  0  0  0  0  0  0  0  0
   68.5140   46.7575   54.6741 C   0  0  0  0  0  0  0  0  0  0  0  0
   67.8621   45.9252   53.8033 C   0  0  0  0  0  0  0  0  0  0  0  0
   67.9378   46.0777   52.4408 C   0  0  0  0  0  0  0  0  0  0  0  0
   68.6942   47.0977   51.9342 C   0  0  0  0  0  0  0  0  0  0  0  0
   69.3537   47.9388   52.8043 C   0  0  0  0  0  0  0  0  0  0  0  0
   70.8959   52.8853   55.5369 C   0  0  0  0  0  0  0  0  0  0  0  0
   72.0275   53.5509   56.0985 C   0  0  0  0  0  0  0  0  0  0  0  0
   72.3012   53.6499   57.4641 C   0  0  0  0  0  0  0  0  0  0  0  0
   73.4588   54.3473   57.6251 C   0  0  0  0  0  0  0  0  0  0  0  0
   73.8782   54.6674   56.3508 C   0  0  0  0  0  0  0  0  0  0  0  0
   73.0199   54.1857   55.5044 O   0  0  0  0  0  0  0  0  0  0  0  0
  9 10  2  0
 10 11  1  0
 10 19  1  0
 11 12  1  0
 12  8  1  0
 12 13  2  0
  8  1  1  0
  1 20  1  0
  1  2  1  0
 20 21  1  0
 21 22  2  0
 21 25  1  0
 22 23  1  0
 23 24  2  0
 24 25  1  0
  2  3  2  0
  2  7  1  0
  3  4  1  0
  4  5  2  0
  5  6  1  0
  6  7  2  0
 13 14  1  0
 14 15  1  0
 14 19  2  0
 15 16  2  0
 16 17  1  0
 17 18  2  0
 18 19  1  0
M  END
>  <minimizedAffinity>  (1) 
-8.60099

$$$$
