cs_full_output_folder/data/smiles/4706.pdb
     RDKit          3D

 23 25  0  0  0  0  0  0  0  0999 V2000
   67.9030   47.9304   56.7743 C   0  0  0  0  0  0  0  0  0  0  0  0
   66.7686   48.0261   57.5112 N   0  0  0  0  0  0  0  0  0  0  0  0
   66.4423   49.1722   58.1209 C   0  0  0  0  0  0  0  0  0  0  0  0
   67.2733   50.2994   58.0083 C   0  0  0  0  0  0  0  0  0  0  0  0
   68.4200   50.2067   57.2635 C   0  0  0  0  0  0  0  0  0  0  0  0
   68.6785   49.0220   56.6821 N   0  0  0  0  0  0  0  0  0  0  0  0
   69.3091   51.3524   57.1210 C   0  0  0  0  0  0  0  0  0  0  0  0
   68.8627   52.5026   56.4559 C   0  0  0  0  0  0  0  0  0  0  0  0
   69.6480   53.6201   56.2852 C   0  0  0  0  0  0  0  0  0  0  0  0
   70.9353   53.6516   56.7745 C   0  0  0  0  0  0  0  0  0  0  0  0
   71.3934   52.5319   57.4315 C   0  0  0  0  0  0  0  0  0  0  0  0
   70.5901   51.3944   57.6038 C   0  0  0  0  0  0  0  0  0  0  0  0
   68.2261   46.7298   56.1471 O   0  0  0  0  0  0  0  0  0  0  0  0
   69.4273   47.7440   52.7956 C   0  0  0  0  0  0  0  0  0  0  0  0
   68.7341   46.8783   51.9777 C   0  0  0  0  0  0  0  0  0  0  0  0
   67.8795   45.9737   52.5778 C   0  0  0  0  0  0  0  0  0  0  0  0
   67.2060   45.1274   51.7423 F   0  0  0  0  0  0  0  0  0  0  0  0
   67.7041   45.9151   53.9426 C   0  0  0  0  0  0  0  0  0  0  0  0
   68.3900   46.7749   54.7702 C   0  0  0  0  0  0  0  0  0  0  0  0
   69.2425   47.6770   54.1733 C   0  0  0  0  0  0  0  0  0  0  0  0
   70.1343   49.1167   51.0542 O   0  0  0  0  0  0  0  0  0  0  0  0
   70.3140   48.6869   52.2153 N   0  0  0  0  0  0  0  0  0  0  0  0
   71.3881   49.1394   52.9360 O   0  0  0  0  0  0  0  0  0  0  0  0
 21 22  2  0
 22 23  1  0
 22 14  1  0
 14 15  2  0
 14 20  1  0
 15 16  1  0
 16 17  1  0
 16 18  2  0
 18 19  1  0
 19 13  1  0
 19 20  2  0
 13  1  1  0
  1  2  2  0
  1  6  1  0
  2  3  1  0
  3  4  2  0
  4  5  1  0
  5  7  1  0
  5  6  2  0
  7  8  2  0
  7 12  1  0
  8  9  1  0
  9 10  2  0
 10 11  1  0
 11 12  2  0
M  CHG  2  22   1  23  -1
M  END
>  <minimizedAffinity>  (1) 
-9.87339

$$$$
cs_full_output_folder/data/smiles/681.pdb
     RDKit          3D

 24 27  0  0  0  0  0  0  0  0999 V2000
   69.8736   47.2312   50.9931 O   0  0  0  0  0  0  0  0  0  0  0  0
   69.7934   48.3008   51.6129 C   0  0  0  0  0  0  0  0  0  0  0  0
   70.0452   49.5190   51.1063 N   0  0  0  0  0  0  0  0  0  0  0  0
   69.8683   50.4546   52.0485 N   0  0  0  0  0  0  0  0  0  0  0  0
   69.5032   49.8361   53.1611 C   0  0  0  0  0  0  0  0  0  0  0  0
   69.4543   48.5013   52.8883 N   0  0  0  0  0  0  0  0  0  0  0  0
   69.0846   47.5194   53.8516 C   0  0  0  0  0  0  0  0  0  0  0  0
   68.5881   46.4139   53.2085 C   0  0  0  0  0  0  0  0  0  0  0  0
   68.1804   45.3001   53.9538 C   0  0  0  0  0  0  0  0  0  0  0  0
   68.2456   45.2470   55.3151 C   0  0  0  0  0  0  0  0  0  0  0  0
   68.7562   46.3955   55.9478 C   0  0  0  0  0  0  0  0  0  0  0  0
   69.1662   47.5084   55.2257 C   0  0  0  0  0  0  0  0  0  0  0  0
   69.6188   48.5732   56.1446 C   0  0  0  0  0  0  0  0  0  0  0  0
   70.1702   49.7810   55.5043 C   0  0  0  0  0  0  0  0  0  0  0  0
   69.2509   50.4789   54.5089 C   0  0  0  0  0  0  0  0  0  0  0  0
   67.8619   44.1901   56.0867 O   0  0  0  0  0  0  0  0  0  0  0  0
   67.6526   42.8627   55.8762 C   0  0  0  0  0  0  0  0  0  0  0  0
   68.3184   41.8937   56.7532 C   0  0  0  0  0  0  0  0  0  0  0  0
   69.5341   42.2517   57.3374 C   0  0  0  0  0  0  0  0  0  0  0  0
   70.2554   41.4234   58.1399 C   0  0  0  0  0  0  0  0  0  0  0  0
   69.7653   40.1664   58.3922 C   0  0  0  0  0  0  0  0  0  0  0  0
   68.5766   39.7685   57.8415 C   0  0  0  0  0  0  0  0  0  0  0  0
   68.1106   38.5317   58.0993 F   0  0  0  0  0  0  0  0  0  0  0  0
   67.8598   40.6386   57.0236 C   0  0  0  0  0  0  0  0  0  0  0  0
  1  2  2  0
  2  3  1  0
  2  6  1  0
  3  4  1  0
  4  5  2  0
  5  6  1  0
  5 15  1  0
  6  7  1  0
  7  8  2  0
  7 12  1  0
  8  9  1  0
  9 10  2  0
 10 16  1  0
 10 11  1  0
 16 17  1  0
 17 18  1  0
 18 19  2  0
 18 24  1  0
 19 20  1  0
 20 21  2  0
 21 22  1  0
 22 23  1  0
 22 24  2  0
 11 12  2  0
 12 13  1  0
 13 14  1  0
 14 15  1  0
M  END
>  <minimizedAffinity>  (2) 
-9.75663

$$$$
cs_full_output_folder/data/smiles/1392.pdb
     RDKit          3D

 26 28  0  0  0  0  0  0  0  0999 V2000
   70.7210   44.7128   57.9627 C   0  0  0  0  0  0  0  0  0  0  0  0
   71.3259   45.7715   58.5845 C   0  0  0  0  0  0  0  0  0  0  0  0
   70.8744   47.0832   58.3858 C   0  0  0  0  0  0  0  0  0  0  0  0
   69.8321   47.2716   57.5679 N   0  0  0  0  0  0  0  0  0  0  0  0
   69.2128   46.2435   56.9366 C   0  0  0  0  0  0  0  0  0  0  0  0
   69.6652   45.0050   57.1455 N   0  0  0  0  0  0  0  0  0  0  0  0
   71.9224   40.6558   58.4403 C   0  0  0  0  0  0  0  0  0  0  0  0
   70.6099   40.9891   58.3303 C   0  0  0  0  0  0  0  0  0  0  0  0
   70.2257   42.3273   58.1740 C   0  0  0  0  0  0  0  0  0  0  0  0
   71.1671   43.3337   58.1271 C   0  0  0  0  0  0  0  0  0  0  0  0
   72.4829   42.9769   58.2385 C   0  0  0  0  0  0  0  0  0  0  0  0
   72.8971   41.6751   58.3940 C   0  0  0  0  0  0  0  0  0  0  0  0
   72.3527   36.7922   58.6252 C   0  0  0  0  0  0  0  0  0  0  0  0
   71.7055   38.1271   58.4167 C   0  0  0  0  0  0  0  0  0  0  0  0
   70.5110   38.1509   58.0673 O   0  0  0  0  0  0  0  0  0  0  0  0
   72.3942   39.3395   58.6001 N   0  0  0  0  0  0  0  0  0  0  0  0
   68.1526   46.5507   56.0739 N   0  0  0  0  0  0  0  0  0  0  0  0
   68.3675   46.7203   54.6852 C   0  0  0  0  0  0  0  0  0  0  0  0
   67.7468   45.8179   53.8007 C   0  0  0  0  0  0  0  0  0  0  0  0
   67.9448   45.9116   52.4431 C   0  0  0  0  0  0  0  0  0  0  0  0
   68.7548   46.8866   51.9006 C   0  0  0  0  0  0  0  0  0  0  0  0
   69.3848   47.7914   52.7393 C   0  0  0  0  0  0  0  0  0  0  0  0
   69.1623   47.6679   54.1022 C   0  0  0  0  0  0  0  0  0  0  0  0
   70.2324   48.8023   52.1559 C   0  0  0  0  0  0  0  0  0  0  0  0
   69.7798   49.5663   51.0653 N   0  0  0  0  0  0  0  0  0  0  0  0
   71.3720   49.0032   52.6202 O   0  0  0  0  0  0  0  0  0  0  0  0
 13 14  1  0
 14 15  2  0
 14 16  1  0
 16  7  1  0
  7  8  2  0
  7 12  1  0
  8  9  1  0
  9 10  2  0
 10  1  1  0
 10 11  1  0
  1  2  2  0
  1  6  1  0
  2  3  1  0
  3  4  2  0
  4  5  1  0
  5 17  1  0
  5  6  2  0
 17 18  1  0
 18 19  2  0
 18 23  1  0
 19 20  1  0
 20 21  2  0
 21 22  1  0
 22 24  1  0
 22 23  2  0
 24 25  1  0
 24 26  2  0
 11 12  2  0
M  END
>  <minimizedAffinity>  (3) 
-9.75279

$$$$
cs_full_output_folder/data/smiles/3111.pdb
     RDKit          3D

 26 29  0  0  0  0  0  0  0  0999 V2000
   70.8076   46.3108   58.4327 C   0  0  0  0  0  0  0  0  0  0  0  0
   69.9278   46.8612   57.5138 C   0  0  0  0  0  0  0  0  0  0  0  0
   69.8506   48.2307   57.2690 C   0  0  0  0  0  0  0  0  0  0  0  0
   70.6819   49.0518   57.9727 C   0  0  0  0  0  0  0  0  0  0  0  0
   71.5926   48.5579   58.9149 C   0  0  0  0  0  0  0  0  0  0  0  0
   71.6153   47.1712   59.1103 C   0  0  0  0  0  0  0  0  0  0  0  0
   72.4700   46.7459   60.0860 F   0  0  0  0  0  0  0  0  0  0  0  0
   69.6591   44.3997   59.1767 O   0  0  0  0  0  0  0  0  0  0  0  0
   70.7459   44.8918   58.6442 C   0  0  0  0  0  0  0  0  0  0  0  0
   71.7378   43.9307   58.3396 N   0  0  0  0  0  0  0  0  0  0  0  0
   71.6707   42.5877   58.6045 C   0  0  0  0  0  0  0  0  0  0  0  0
   72.7571   41.9385   58.1189 C   0  0  0  0  0  0  0  0  0  0  0  0
   73.5554   42.8708   57.5237 C   0  0  0  0  0  0  0  0  0  0  0  0
   72.8862   44.0925   57.6821 C   0  0  0  0  0  0  0  0  0  0  0  0
   68.8492   48.6896   56.2840 C   0  0  0  0  0  0  0  0  0  0  0  0
   69.3245   48.6397   54.8769 C   0  0  0  0  0  0  0  0  0  0  0  0
   70.2136   49.5786   54.4472 N   0  0  0  0  0  0  0  0  0  0  0  0
   70.6197   49.5981   53.2104 N   0  0  0  0  0  0  0  0  0  0  0  0
   70.1916   48.7091   52.3063 C   0  0  0  0  0  0  0  0  0  0  0  0
   70.5960   48.7386   51.0958 O   0  0  0  0  0  0  0  0  0  0  0  0
   69.2829   47.7160   52.6644 C   0  0  0  0  0  0  0  0  0  0  0  0
   68.8545   46.7983   51.7342 C   0  0  0  0  0  0  0  0  0  0  0  0
   67.9644   45.8316   52.1499 C   0  0  0  0  0  0  0  0  0  0  0  0
   67.5262   45.7928   53.4544 C   0  0  0  0  0  0  0  0  0  0  0  0
   67.9575   46.7149   54.3859 C   0  0  0  0  0  0  0  0  0  0  0  0
   68.8597   47.7094   53.9926 C   0  0  0  0  0  0  0  0  0  0  0  0
  8  9  2  0
  9  1  1  0
  9 10  1  0
  1  2  2  0
  1  6  1  0
  2  3  1  0
  3 15  1  0
  3  4  2  0
 15 16  1  0
 16 17  2  0
 16 26  1  0
 17 18  1  0
 18 19  1  0
 19 20  2  0
 19 21  1  0
 21 22  1  0
 21 26  2  0
 22 23  2  0
 23 24  1  0
 24 25  2  0
 25 26  1  0
  4  5  1  0
  5  6  2  0
  6  7  1  0
 10 11  1  0
 10 14  1  0
 11 12  2  0
 12 13  1  0
 13 14  2  0
M  END
>  <minimizedAffinity>  (4) 
-9.67563

$$$$
cs_full_output_folder/data/smiles/1249.pdb
     RDKit          3D

 24 26  0  0  0  0  0  0  0  0999 V2000
   68.6934   45.8083   56.8776 O   0  0  0  0  0  0  0  0  0  0  0  0
   69.0816   46.8164   56.2294 C   0  0  0  0  0  0  0  0  0  0  0  0
   68.8631   46.8487   54.8001 C   0  0  0  0  0  0  0  0  0  0  0  0
   68.0160   45.9378   54.1756 C   0  0  0  0  0  0  0  0  0  0  0  0
   67.7939   45.9486   52.8327 C   0  0  0  0  0  0  0  0  0  0  0  0
   66.9381   45.0216   52.2340 O   0  0  0  0  0  0  0  0  0  0  0  0
   68.4384   46.9049   52.0676 C   0  0  0  0  0  0  0  0  0  0  0  0
   68.2037   46.9053   50.7010 O   0  0  0  0  0  0  0  0  0  0  0  0
   69.2963   47.8430   52.6282 C   0  0  0  0  0  0  0  0  0  0  0  0
   69.4779   47.7778   53.9968 C   0  0  0  0  0  0  0  0  0  0  0  0
   69.9112   48.7785   51.7945 N   0  0  0  0  0  0  0  0  0  0  0  0
   70.6494   48.4037   50.8721 O   0  0  0  0  0  0  0  0  0  0  0  0
   69.7165   50.1195   51.9745 O   0  0  0  0  0  0  0  0  0  0  0  0
   69.7598   47.9591   56.9432 C   0  0  0  0  0  0  0  0  0  0  0  0
   68.8830   49.1093   57.0594 C   0  0  0  0  0  0  0  0  0  0  0  0
   67.6707   48.9858   57.7077 C   0  0  0  0  0  0  0  0  0  0  0  0
   66.7721   50.0174   57.8665 C   0  0  0  0  0  0  0  0  0  0  0  0
   67.0811   51.2588   57.3560 C   0  0  0  0  0  0  0  0  0  0  0  0
   68.2923   51.4183   56.6971 C   0  0  0  0  0  0  0  0  0  0  0  0
   68.6678   52.6376   56.1595 C   0  0  0  0  0  0  0  0  0  0  0  0
   69.8628   52.8305   55.5003 C   0  0  0  0  0  0  0  0  0  0  0  0
   70.7202   51.7598   55.3731 C   0  0  0  0  0  0  0  0  0  0  0  0
   70.3778   50.5168   55.9012 C   0  0  0  0  0  0  0  0  0  0  0  0
   69.1831   50.3687   56.5473 C   0  0  0  0  0  0  0  0  0  0  0  0
  1  2  2  0
  2 14  1  0
  2  3  1  0
 14 15  1  0
 15 16  2  0
 15 24  1  0
 16 17  1  0
 17 18  2  0
 18 19  1  0
 19 20  1  0
 19 24  2  0
 20 21  2  0
 21 22  1  0
 22 23  2  0
 23 24  1  0
  3  4  2  0
  3 10  1  0
  4  5  1  0
  5  6  1  0
  5  7  2  0
  7  8  1  0
  7  9  1  0
  9 11  1  0
  9 10  2  0
 11 12  2  0
 11 13  1  0
M  CHG  2  11   1  13  -1
M  END
>  <minimizedAffinity>  (5) 
-9.64426

$$$$
cs_full_output_folder/data/smiles/2363.pdb
     RDKit          3D

 25 27  0  0  0  0  0  0  0  0999 V2000
   73.2588   50.4529   53.9274 O   0  0  0  0  0  0  0  0  0  0  0  0
   72.6613   50.8737   55.0133 C   0  0  0  0  0  0  0  0  0  0  0  0
   73.5398   51.2742   56.0366 N   0  0  0  0  0  0  0  0  0  0  0  0
   74.9518   51.2282   55.8729 N   0  0  0  0  0  0  0  0  0  0  0  0
   75.6753   50.0264   56.0874 C   0  0  0  0  0  0  0  0  0  0  0  0
   75.0755   48.9694   56.4497 O   0  0  0  0  0  0  0  0  0  0  0  0
   77.1323   49.9579   55.8999 C   0  0  0  0  0  0  0  0  0  0  0  0
   77.9590   50.8594   56.5815 C   0  0  0  0  0  0  0  0  0  0  0  0
   79.3428   50.8108   56.5032 C   0  0  0  0  0  0  0  0  0  0  0  0
   79.9477   49.8466   55.7311 C   0  0  0  0  0  0  0  0  0  0  0  0
   81.2908   49.7471   55.6047 F   0  0  0  0  0  0  0  0  0  0  0  0
   79.1452   48.9417   55.0470 C   0  0  0  0  0  0  0  0  0  0  0  0
   77.7571   49.0007   55.1327 C   0  0  0  0  0  0  0  0  0  0  0  0
   71.2068   50.8649   55.0193 C   0  0  0  0  0  0  0  0  0  0  0  0
   70.5268   49.7871   54.2944 C   0  0  0  0  0  0  0  0  0  0  0  0
   69.7299   48.8574   54.8383 N   0  0  0  0  0  0  0  0  0  0  0  0
   69.1723   47.8682   54.0913 C   0  0  0  0  0  0  0  0  0  0  0  0
   68.3560   46.9196   54.6343 C   0  0  0  0  0  0  0  0  0  0  0  0
   67.7822   45.9030   53.8731 C   0  0  0  0  0  0  0  0  0  0  0  0
   68.0239   45.8173   52.5270 C   0  0  0  0  0  0  0  0  0  0  0  0
   68.8521   46.7826   51.9685 C   0  0  0  0  0  0  0  0  0  0  0  0
   69.4188   47.7961   52.7311 C   0  0  0  0  0  0  0  0  0  0  0  0
   70.2448   48.7643   52.1861 C   0  0  0  0  0  0  0  0  0  0  0  0
   70.4549   48.6897   50.9610 O   0  0  0  0  0  0  0  0  0  0  0  0
   70.7616   49.7068   52.9687 N   0  0  0  0  0  0  0  0  0  0  0  0
  1  2  2  0
  2 14  1  0
  2  3  1  0
 14 15  1  0
 15 16  2  0
 15 25  1  0
 16 17  1  0
 17 18  2  0
 17 22  1  0
 18 19  1  0
 19 20  2  0
 20 21  1  0
 21 22  2  0
 22 23  1  0
 23 24  2  0
 23 25  1  0
  3  4  1  0
  4  5  1  0
  5  6  2  0
  5  7  1  0
  7  8  2  0
  7 13  1  0
  8  9  1  0
  9 10  2  0
 10 11  1  0
 10 12  1  0
 12 13  2  0
M  END
>  <minimizedAffinity>  (6) 
-9.62845

$$$$
cs_full_output_folder/data/smiles/907.pdb
     RDKit          3D

 24 26  0  0  0  0  0  0  0  0999 V2000
   68.7272   45.5373   56.7603 O   0  0  0  0  0  0  0  0  0  0  0  0
   69.0435   46.6626   56.1969 C   0  0  0  0  0  0  0  0  0  0  0  0
   68.7839   46.6998   54.7830 C   0  0  0  0  0  0  0  0  0  0  0  0
   67.9037   45.8108   54.1657 C   0  0  0  0  0  0  0  0  0  0  0  0
   67.7690   45.8777   52.8025 C   0  0  0  0  0  0  0  0  0  0  0  0
   66.8712   44.9799   52.2183 O   0  0  0  0  0  0  0  0  0  0  0  0
   68.4677   46.7797   52.0312 C   0  0  0  0  0  0  0  0  0  0  0  0
   68.3097   46.8188   50.6547 O   0  0  0  0  0  0  0  0  0  0  0  0
   69.3567   47.6782   52.6262 C   0  0  0  0  0  0  0  0  0  0  0  0
   69.4946   47.6219   53.9870 C   0  0  0  0  0  0  0  0  0  0  0  0
   70.1132   48.5931   51.8621 N   0  0  2  0  0  0  0  0  0  0  0  0
   71.2746   48.9306   52.4224 O   0  0  0  0  0  0  0  0  0  0  0  0
   69.4255   49.6662   51.4981 F   0  0  0  0  0  0  0  0  0  0  0  0
   69.6024   47.7267   57.0555 C   0  0  0  0  0  0  0  0  0  0  0  0
   68.7735   48.9057   57.0269 C   0  0  0  0  0  0  0  0  0  0  0  0
   67.5702   48.8493   57.7549 C   0  0  0  0  0  0  0  0  0  0  0  0
   66.7655   49.9638   57.8886 C   0  0  0  0  0  0  0  0  0  0  0  0
   67.1021   51.1804   57.3134 C   0  0  0  0  0  0  0  0  0  0  0  0
   68.2619   51.2475   56.6034 C   0  0  0  0  0  0  0  0  0  0  0  0
   68.5491   52.4620   56.0031 C   0  0  0  0  0  0  0  0  0  0  0  0
   69.6903   52.5435   55.2438 C   0  0  0  0  0  0  0  0  0  0  0  0
   70.5230   51.4552   55.0842 C   0  0  0  0  0  0  0  0  0  0  0  0
   70.1979   50.2465   55.7089 C   0  0  0  0  0  0  0  0  0  0  0  0
   69.0616   50.1404   56.4718 C   0  0  0  0  0  0  0  0  0  0  0  0
  1  2  2  0
  2 14  1  0
  2  3  1  0
 14 15  1  0
 15 16  2  0
 15 24  1  0
 16 17  1  0
 17 18  2  0
 18 19  1  0
 19 20  1  0
 19 24  2  0
 20 21  2  0
 21 22  1  0
 22 23  2  0
 23 24  1  0
  3  4  2  0
  3 10  1  0
  4  5  1  0
  5  6  1  0
  5  7  2  0
  7  8  1  0
  7  9  1  0
  9 11  1  0
  9 10  2  0
 11 12  1  1
 11 13  1  0
M  CHG  2  11   1  12  -1
M  END
>  <minimizedAffinity>  (7) 
-9.62426

$$$$
cs_full_output_folder/data/smiles/183.pdb
     RDKit          3D

 24 26  0  0  0  0  0  0  0  0999 V2000
   69.9488   47.6262   57.5281 O   0  0  0  0  0  0  0  0  0  0  0  0
   69.9964   46.3826   57.6067 C   0  0  0  0  0  0  0  0  0  0  0  0
   69.0118   45.7537   56.7420 N   0  0  0  0  0  0  0  0  0  0  0  0
   70.8754   45.6106   58.4184 C   0  0  0  0  0  0  0  0  0  0  0  0
   70.9559   46.0811   59.6418 O   0  0  0  0  0  0  0  0  0  0  0  0
   71.6791   44.4499   58.2035 C   0  0  0  0  0  0  0  0  0  0  0  0
   71.1408   43.2287   57.7329 C   0  0  0  0  0  0  0  0  0  0  0  0
   72.1221   42.3361   57.5569 N   0  0  0  0  0  0  0  0  0  0  0  0
   73.3091   42.8674   57.8784 C   0  0  0  0  0  0  0  0  0  0  0  0
   74.5751   42.3311   57.8691 C   0  0  0  0  0  0  0  0  0  0  0  0
   75.6459   43.0984   58.2730 C   0  0  0  0  0  0  0  0  0  0  0  0
   75.3844   44.3959   58.6739 C   0  0  0  0  0  0  0  0  0  0  0  0
   74.0877   44.9159   58.6731 C   0  0  0  0  0  0  0  0  0  0  0  0
   73.0245   44.1720   58.2773 C   0  0  0  0  0  0  0  0  0  0  0  0
   68.1531   46.4960   55.9360 N   0  0  0  0  0  0  0  0  0  0  0  0
   68.3463   46.6632   54.5374 C   0  0  0  0  0  0  0  0  0  0  0  0
   67.7125   45.8322   53.6300 C   0  0  0  0  0  0  0  0  0  0  0  0
   67.8839   45.9359   52.2739 C   0  0  0  0  0  0  0  0  0  0  0  0
   68.7316   46.9133   51.7527 C   0  0  0  0  0  0  0  0  0  0  0  0
   69.3695   47.7507   52.6710 C   0  0  0  0  0  0  0  0  0  0  0  0
   69.1812   47.6285   54.0249 C   0  0  0  0  0  0  0  0  0  0  0  0
   70.2477   48.7633   52.1561 N   0  0  0  0  0  0  0  0  0  0  0  0
   70.0426   49.3272   51.0763 O   0  0  0  0  0  0  0  0  0  0  0  0
   71.3476   49.0921   52.9079 O   0  0  0  0  0  0  0  0  0  0  0  0
  1  2  2  0
  2  3  1  0
  2  4  1  0
  3 15  1  0
 15 16  1  0
 16 17  2  0
 16 21  1  0
 17 18  1  0
 18 19  2  0
 19 20  1  0
 20 22  1  0
 20 21  2  0
 22 23  2  0
 22 24  1  0
  4  5  2  0
  4  6  1  0
  6  7  2  0
  6 14  1  0
  7  8  1  0
  8  9  1  0
  9 10  1  0
  9 14  2  0
 10 11  2  0
 11 12  1  0
 12 13  2  0
 13 14  1  0
M  CHG  2  22   1  24  -1
M  END
>  <minimizedAffinity>  (8) 
-9.61779

$$$$
cs_full_output_folder/data/smiles/1674.pdb
     RDKit          3D

 24 26  0  0  0  0  0  0  0  0999 V2000
   68.2743   45.5705   55.8834 N   0  0  0  0  0  0  0  0  0  0  0  0
   69.1239   47.6385   52.9224 C   0  0  0  0  0  0  0  0  0  0  0  0
   68.5103   46.9134   51.8961 C   0  0  0  0  0  0  0  0  0  0  0  0
   67.8151   45.7584   52.1752 C   0  0  0  0  0  0  0  0  0  0  0  0
   67.7263   45.3117   53.5009 C   0  0  0  0  0  0  0  0  0  0  0  0
   68.3110   45.9863   54.5354 C   0  0  0  0  0  0  0  0  0  0  0  0
   69.0014   47.1515   54.1910 C   0  0  0  0  0  0  0  0  0  0  0  0
   69.9877   49.0843   52.4971 S   0  0  0  0  0  0  0  0  0  0  0  0
   69.9754   49.3510   51.0046 O   0  0  0  0  0  0  0  0  0  0  0  0
   71.4235   49.0514   52.9270 O   0  0  0  0  0  0  0  0  0  0  0  0
   70.1895   51.1304   54.1390 C   0  0  0  0  0  0  0  0  0  0  0  0
   69.2363   50.4902   53.2152 N   0  0  0  0  0  0  0  0  0  0  0  0
   68.5227   44.2313   56.2759 C   0  0  0  0  0  0  0  0  0  0  0  0
   67.4872   43.3388   56.1250 N   0  0  0  0  0  0  0  0  0  0  0  0
   67.6005   42.0539   56.4829 C   0  0  0  0  0  0  0  0  0  0  0  0
   68.8044   41.6002   57.0282 C   0  0  0  0  0  0  0  0  0  0  0  0
   69.8535   42.4748   57.1893 C   0  0  0  0  0  0  0  0  0  0  0  0
   69.6218   43.7380   56.7934 N   0  0  0  0  0  0  0  0  0  0  0  0
   71.1320   42.0683   57.7584 C   0  0  0  0  0  0  0  0  0  0  0  0
   72.2664   42.8274   57.6749 C   0  0  0  0  0  0  0  0  0  0  0  0
   73.4714   42.3839   58.2381 C   0  0  0  0  0  0  0  0  0  0  0  0
   73.5559   41.1766   58.8906 C   0  0  0  0  0  0  0  0  0  0  0  0
   72.4231   40.3997   58.9840 C   0  0  0  0  0  0  0  0  0  0  0  0
   71.2466   40.8480   58.4263 C   0  0  0  0  0  0  0  0  0  0  0  0
 11 12  1  0
 12  8  1  0
  8  9  2  0
  8 10  2  0
  8  2  1  0
  2  3  2  0
  2  7  1  0
  3  4  1  0
  4  5  2  0
  5  6  1  0
  6  1  1  0
  6  7  2  0
  1 13  1  0
 13 14  2  0
 13 18  1  0
 14 15  1  0
 15 16  2  0
 16 17  1  0
 17 19  1  0
 17 18  2  0
 19 20  2  0
 19 24  1  0
 20 21  1  0
 21 22  2  0
 22 23  1  0
 23 24  2  0
M  END
>  <minimizedAffinity>  (9) 
-9.53683

$$$$
cs_full_output_folder/data/smiles/1878.pdb
     RDKit          3D

 26 29  0  0  0  0  0  0  0  0999 V2000
   70.4472   45.5196   58.0967 C   0  0  0  0  0  0  0  0  0  0  0  0
   71.2707   46.4219   58.5425 C   0  0  0  0  0  0  0  0  0  0  0  0
   70.8617   47.7620   57.9884 C   0  0  0  0  0  0  0  0  0  0  0  0
   69.6875   47.4327   57.1778 C   0  0  0  0  0  0  0  0  0  0  0  0
   69.4906   46.1705   57.2652 N   0  0  0  0  0  0  0  0  0  0  0  0
   68.8666   43.6770   56.6701 O   0  0  0  0  0  0  0  0  0  0  0  0
   69.5969   43.2015   57.5948 C   0  0  0  0  0  0  0  0  0  0  0  0
   70.3969   44.0952   58.3239 N   0  0  0  0  0  0  0  0  0  0  0  0
   69.5451   41.7644   57.8247 C   0  0  0  0  0  0  0  0  0  0  0  0
   68.4021   41.0545   57.5333 C   0  0  0  0  0  0  0  0  0  0  0  0
   68.3094   39.6827   57.7377 C   0  0  0  0  0  0  0  0  0  0  0  0
   69.3729   38.9798   58.2462 C   0  0  0  0  0  0  0  0  0  0  0  0
   70.5198   39.6710   58.5423 C   0  0  0  0  0  0  0  0  0  0  0  0
   70.6025   41.0541   58.3318 C   0  0  0  0  0  0  0  0  0  0  0  0
   68.8389   48.3586   56.3644 C   0  0  0  0  0  0  0  0  0  0  0  0
   69.2722   48.4440   54.9509 C   0  0  0  0  0  0  0  0  0  0  0  0
   70.0802   49.4443   54.5608 N   0  0  0  0  0  0  0  0  0  0  0  0
   70.5189   49.5996   53.3313 N   0  0  0  0  0  0  0  0  0  0  0  0
   70.1716   48.7398   52.3637 C   0  0  0  0  0  0  0  0  0  0  0  0
   70.5794   48.8772   51.2004 O   0  0  0  0  0  0  0  0  0  0  0  0
   69.3441   47.6873   52.6925 C   0  0  0  0  0  0  0  0  0  0  0  0
   68.8842   47.5282   53.9932 C   0  0  0  0  0  0  0  0  0  0  0  0
   67.9978   46.4113   54.3599 C   0  0  0  0  0  0  0  0  0  0  0  0
   67.8005   45.4440   53.2335 C   0  0  0  0  0  0  0  0  0  0  0  0
   67.6026   46.2091   51.9185 C   0  0  0  0  0  0  0  0  0  0  0  0
   68.9838   46.7502   51.5847 C   0  0  0  0  0  0  0  0  0  0  0  0
  6  7  2  0
  7  8  1  0
  7  9  1  0
  8  1  1  0
  1  2  2  0
  1  5  1  0
  2  3  1  0
  3  4  1  0
  4 15  1  0
  4  5  2  0
 15 16  1  0
 16 17  2  0
 16 22  1  0
 17 18  1  0
 18 19  1  0
 19 20  2  0
 19 21  1  0
 21 22  2  0
 21 26  1  0
 22 23  1  0
 23 24  1  0
 24 25  1  0
 25 26  1  0
  9 10  2  0
  9 14  1  0
 10 11  1  0
 11 12  2  0
 12 13  1  0
 13 14  2  0
M  END
>  <minimizedAffinity>  (10) 
-9.53539

$$$$
cs_full_output_folder/data/smiles/5961.pdb
     RDKit          3D

 25 27  0  0  0  0  0  0  0  0999 V2000
   72.5349   50.4973   55.7192 C   0  0  0  0  0  0  0  0  0  0  0  0
   73.7102   51.1409   55.0725 C   0  0  2  0  0  0  0  0  0  0  0  0
   73.8170   50.6332   53.7159 N   0  0  0  0  0  0  0  0  0  0  0  0
   75.8748   49.9791   55.5054 C   0  0  0  0  0  0  0  0  0  0  0  0
   75.5891   49.2039   54.5538 O   0  0  0  0  0  0  0  0  0  0  0  0
   74.9425   50.9876   55.8078 N   0  0  0  0  0  0  0  0  0  0  0  0
   80.5580   49.4498   58.5738 N   0  0  0  0  0  0  0  0  0  0  0  0
   79.3908   49.5813   57.8043 C   0  0  0  0  0  0  0  0  0  0  0  0
   79.4415   49.3507   56.4421 C   0  0  0  0  0  0  0  0  0  0  0  0
   78.3122   49.4729   55.6655 C   0  0  0  0  0  0  0  0  0  0  0  0
   77.1275   49.8262   56.2567 C   0  0  0  0  0  0  0  0  0  0  0  0
   77.0982   50.0529   57.6277 C   0  0  0  0  0  0  0  0  0  0  0  0
   78.2059   49.9409   58.4332 C   0  0  0  0  0  0  0  0  0  0  0  0
   71.2397   50.9953   55.0768 C   0  0  0  0  0  0  0  0  0  0  0  0
   70.5943   49.8903   54.3005 C   0  0  0  0  0  0  0  0  0  0  0  0
   69.8082   48.9705   54.8943 N   0  0  0  0  0  0  0  0  0  0  0  0
   69.2229   47.9756   54.2149 C   0  0  0  0  0  0  0  0  0  0  0  0
   68.4175   47.0319   54.8191 C   0  0  0  0  0  0  0  0  0  0  0  0
   67.8128   46.0039   54.1154 C   0  0  0  0  0  0  0  0  0  0  0  0
   68.0058   45.8933   52.7569 C   0  0  0  0  0  0  0  0  0  0  0  0
   68.8075   46.8267   52.1349 C   0  0  0  0  0  0  0  0  0  0  0  0
   69.4137   47.8603   52.8526 C   0  0  0  0  0  0  0  0  0  0  0  0
   70.2178   48.7996   52.2392 C   0  0  0  0  0  0  0  0  0  0  0  0
   70.4078   48.7189   51.0014 O   0  0  0  0  0  0  0  0  0  0  0  0
   70.7856   49.7847   52.9709 N   0  0  0  0  0  0  0  0  0  0  0  0
  7  8  1  0
  8  9  2  0
  8 13  1  0
  9 10  1  0
 10 11  2  0
 11  4  1  0
 11 12  1  0
  4  5  2  0
  4  6  1  0
  6  2  1  0
  2  3  1  6
  2  1  1  0
  1 14  1  0
 14 15  1  0
 15 16  2  0
 15 25  1  0
 16 17  1  0
 17 18  2  0
 17 22  1  0
 18 19  1  0
 19 20  2  0
 20 21  1  0
 21 22  2  0
 22 23  1  0
 23 24  2  0
 23 25  1  0
 12 13  2  0
M  CHG  1   3   1
M  END
>  <minimizedAffinity>  (11) 
-9.48303

$$$$
cs_full_output_folder/data/smiles/466.pdb
     RDKit          3D

 26 29  0  0  0  0  0  0  0  0999 V2000
   69.2451   47.6632   56.1304 N   0  0  0  0  0  0  0  0  0  0  0  0
   69.6740   48.6410   55.2973 C   0  0  0  0  0  0  0  0  0  0  0  0
   69.4915   48.5680   53.9218 C   0  0  0  0  0  0  0  0  0  0  0  0
   68.8586   47.4883   53.3326 C   0  0  0  0  0  0  0  0  0  0  0  0
   68.6654   47.3925   51.9622 C   0  0  0  0  0  0  0  0  0  0  0  0
   68.0319   46.3106   51.3849 C   0  0  0  0  0  0  0  0  0  0  0  0
   67.5934   45.3157   52.2338 C   0  0  0  0  0  0  0  0  0  0  0  0
   67.7872   45.4116   53.5965 C   0  0  0  0  0  0  0  0  0  0  0  0
   68.4220   46.4981   54.1751 C   0  0  0  0  0  0  0  0  0  0  0  0
   68.6204   46.6061   55.5266 C   0  0  0  0  0  0  0  0  0  0  0  0
   68.1921   45.6576   56.2742 O   0  0  0  0  0  0  0  0  0  0  0  0
   70.0403   49.7525   53.2776 C   0  0  0  0  0  0  0  0  0  0  0  0
   70.0732   50.0596   52.0588 O   0  0  0  0  0  0  0  0  0  0  0  0
   70.5840   50.5851   54.3392 C   0  0  0  0  0  0  0  0  0  0  0  0
   71.2199   51.8235   54.3249 C   0  0  0  0  0  0  0  0  0  0  0  0
   71.6422   52.4152   55.4854 C   0  0  0  0  0  0  0  0  0  0  0  0
   71.4107   51.7364   56.6507 C   0  0  0  0  0  0  0  0  0  0  0  0
   70.7772   50.4946   56.7064 C   0  0  0  0  0  0  0  0  0  0  0  0
   70.3557   49.9047   55.5419 C   0  0  0  0  0  0  0  0  0  0  0  0
   69.4069   47.6607   57.5488 C   0  0  0  0  0  0  0  0  0  0  0  0
   70.4361   46.7658   58.1216 C   0  0  2  0  0  0  0  0  0  0  0  0
   69.9992   45.7178   58.9128 O   0  0  0  0  0  0  0  0  0  0  0  0
   71.5418   47.4384   58.9034 C   0  0  0  0  0  0  0  0  0  0  0  0
   73.0179   47.9106   62.0208 N   0  0  0  0  0  0  0  0  0  0  0  0
   72.2342   47.7052   61.0701 N   0  0  0  0  0  0  0  0  0  0  0  0
   71.4931   47.0550   60.3016 N   0  0  0  0  0  0  0  0  0  0  0  0
 24 25  2  0
 25 26  2  0
 26 23  1  0
 23 21  1  0
 21 22  1  1
 21 20  1  0
 20  1  1  0
  1  2  1  0
  1 10  1  0
  2  3  2  0
  2 19  1  0
  3  4  1  0
  3 12  1  0
  4  5  1  0
  4  9  2  0
  5  6  2  0
  6  7  1  0
  7  8  2  0
  8  9  1  0
  9 10  1  0
 10 11  2  0
 12 13  2  0
 12 14  1  0
 14 15  1  0
 14 19  2  0
 15 16  2  0
 16 17  1  0
 17 18  2  0
 18 19  1  0
M  CHG  2  24  -1  25   1
M  END
>  <minimizedAffinity>  (12) 
-9.42010

$$$$
cs_full_output_folder/data/smiles/2827.pdb
     RDKit          3D

 23 26  0  0  0  0  0  0  0  0999 V2000
   69.9664   49.5163   53.5168 C   0  0  0  0  0  0  0  0  0  0  0  0
   70.0376   50.0532   52.2742 N   0  0  0  0  0  0  0  0  0  0  0  0
   69.5405   49.1774   51.4313 N   0  0  0  0  0  0  0  0  0  0  0  0
   69.1355   48.0629   52.0760 C   0  0  0  0  0  0  0  0  0  0  0  0
   68.5575   46.8885   51.6117 C   0  0  0  0  0  0  0  0  0  0  0  0
   68.2435   45.9013   52.5213 C   0  0  0  0  0  0  0  0  0  0  0  0
   68.4912   46.0535   53.8792 C   0  0  0  0  0  0  0  0  0  0  0  0
   69.0646   47.2359   54.2805 C   0  0  0  0  0  0  0  0  0  0  0  0
   69.3976   48.2554   53.4172 C   0  0  0  0  0  0  0  0  0  0  0  0
   68.1427   44.9811   54.8009 C   0  0  0  0  0  0  0  0  0  0  0  0
   68.5803   44.7771   56.0524 N   0  0  0  0  0  0  0  0  0  0  0  0
   68.0137   43.6721   56.5625 N   0  0  0  0  0  0  0  0  0  0  0  0
   67.2220   43.1825   55.6323 N   0  0  0  0  0  0  0  0  0  0  0  0
   67.2925   43.9694   54.5573 N   0  0  0  0  0  0  0  0  0  0  0  0
   70.4104   50.1499   54.7547 C   0  0  0  0  0  0  0  0  0  0  0  0
   70.1078   49.4490   56.0306 C   0  0  0  0  0  0  0  0  0  0  0  0
   68.4228   47.4867   57.4935 N   0  0  0  0  0  0  0  0  0  0  0  0
   68.0672   48.8525   57.3562 C   0  0  0  0  0  0  0  0  0  0  0  0
   66.8655   49.2300   57.9552 C   0  0  0  0  0  0  0  0  0  0  0  0
   66.4165   50.5286   57.8674 C   0  0  0  0  0  0  0  0  0  0  0  0
   67.1724   51.4413   57.1818 C   0  0  0  0  0  0  0  0  0  0  0  0
   68.3422   51.0605   56.6017 C   0  0  0  0  0  0  0  0  0  0  0  0
   68.8352   49.7515   56.6667 C   0  0  0  0  0  0  0  0  0  0  0  0
 17 18  1  0
 18 19  2  0
 18 23  1  0
 19 20  1  0
 20 21  2  0
 21 22  1  0
 22 23  2  0
 23 16  1  0
 16 15  1  0
 15  1  1  0
  1  2  2  0
  1  9  1  0
  2  3  1  0
  3  4  1  0
  4  5  1  0
  4  9  2  0
  5  6  2  0
  6  7  1  0
  7 10  1  0
  7  8  2  0
 10 11  2  0
 10 14  1  0
 11 12  1  0
 12 13  2  0
 13 14  1  0
  8  9  1  0
M  END
>  <minimizedAffinity>  (13) 
-9.41939

$$$$
cs_full_output_folder/data/smiles/3698.pdb
     RDKit          3D

 25 28  0  0  0  0  0  0  0  0999 V2000
   70.0402   50.9039   54.3642 C   0  0  0  0  0  0  0  0  0  0  0  0
   68.7533   51.4266   54.5658 C   0  0  0  0  0  0  0  0  0  0  0  0
   68.5586   52.5628   55.3122 C   0  0  0  0  0  0  0  0  0  0  0  0
   69.6300   53.2208   55.8858 C   0  0  0  0  0  0  0  0  0  0  0  0
   69.4779   54.3417   56.6295 F   0  0  0  0  0  0  0  0  0  0  0  0
   70.9091   52.7402   55.7130 C   0  0  0  0  0  0  0  0  0  0  0  0
   71.0741   51.5785   54.9440 C   0  0  0  0  0  0  0  0  0  0  0  0
   72.0487   53.4198   56.3090 C   0  0  0  0  0  0  0  0  0  0  0  0
   72.8793   54.1958   55.5317 C   0  0  0  0  0  0  0  0  0  0  0  0
   73.9712   54.8437   56.1202 C   0  0  0  0  0  0  0  0  0  0  0  0
   74.2262   54.7233   57.4364 N   0  0  0  0  0  0  0  0  0  0  0  0
   73.4289   53.9688   58.2225 C   0  0  0  0  0  0  0  0  0  0  0  0
   72.3492   53.3252   57.6486 C   0  0  0  0  0  0  0  0  0  0  0  0
   70.2101   49.7068   53.5368 C   0  0  0  0  0  0  0  0  0  0  0  0
   68.2064   45.2817   56.1252 O   0  0  0  0  0  0  0  0  0  0  0  0
   68.6258   46.2677   55.4699 C   0  0  0  0  0  0  0  0  0  0  0  0
   69.2632   47.2572   56.1257 N   0  0  0  0  0  0  0  0  0  0  0  0
   69.7313   48.3187   55.5140 N   0  0  0  0  0  0  0  0  0  0  0  0
   69.6088   48.5033   54.1579 C   0  0  0  0  0  0  0  0  0  0  0  0
   68.9606   47.5031   53.4747 C   0  0  0  0  0  0  0  0  0  0  0  0
   68.7731   47.6054   52.1256 C   0  0  0  0  0  0  0  0  0  0  0  0
   68.1043   46.5979   51.4266 C   0  0  0  0  0  0  0  0  0  0  0  0
   67.6097   45.4762   52.0625 C   0  0  0  0  0  0  0  0  0  0  0  0
   67.7907   45.3635   53.4214 C   0  0  0  0  0  0  0  0  0  0  0  0
   68.4523   46.3610   54.1039 C   0  0  0  0  0  0  0  0  0  0  0  0
 15 16  2  0
 16 17  1  0
 16 25  1  0
 17 18  1  0
 18 19  2  0
 19 14  1  0
 19 20  1  0
 14  1  1  0
  1  2  2  0
  1  7  1  0
  2  3  1  0
  3  4  2  0
  4  5  1  0
  4  6  1  0
  6  8  1  0
  6  7  2  0
  8  9  2  0
  8 13  1  0
  9 10  1  0
 10 11  2  0
 11 12  1  0
 12 13  2  0
 20 21  1  0
 20 25  2  0
 21 22  2  0
 22 23  1  0
 23 24  2  0
 24 25  1  0
M  END
>  <minimizedAffinity>  (14) 
-9.40024

$$$$
