cs_full_output_folder/data/smiles/2084.pdb
     RDKit          3D

 29 32  0  0  0  0  0  0  0  0999 V2000
   71.5664   47.2001   58.8782 C   0  0  0  0  0  0  0  0  0  0  0  0
   70.7487   47.9822   58.0759 C   0  0  0  0  0  0  0  0  0  0  0  0
   69.8546   47.4636   57.1831 C   0  0  0  0  0  0  0  0  0  0  0  0
   69.8029   46.0539   57.1124 C   0  0  0  0  0  0  0  0  0  0  0  0
   70.5961   45.2475   57.8917 C   0  0  0  0  0  0  0  0  0  0  0  0
   71.4791   45.8295   58.7754 C   0  0  0  0  0  0  0  0  0  0  0  0
   72.2779   45.0692   59.5591 F   0  0  0  0  0  0  0  0  0  0  0  0
   72.1285   47.8744   61.0201 O   0  0  0  0  0  0  0  0  0  0  0  0
   72.5100   47.7892   59.8241 C   0  0  0  0  0  0  0  0  0  0  0  0
   73.7961   48.2503   59.4483 N   0  0  0  0  0  0  0  0  0  0  0  0
   74.2217   48.1415   58.0931 C   0  0  0  0  0  0  0  0  0  0  0  0
   75.2277   49.1283   57.6309 C   0  0  0  0  0  0  0  0  0  0  0  0
   76.0855   49.7275   58.7096 C   0  0  0  0  0  0  0  0  0  0  0  0
   76.0631   48.9541   59.9851 C   0  0  1  0  0  0  0  0  0  0  0  0
   74.6572   48.8281   60.4488 C   0  0  0  0  0  0  0  0  0  0  0  0
   76.8310   47.6616   59.9328 C   0  0  0  0  0  0  0  0  0  0  0  0
   76.1406   46.7627   60.7550 F   0  0  0  0  0  0  0  0  0  0  0  0
   68.9515   48.2588   56.2934 C   0  0  0  0  0  0  0  0  0  0  0  0
   69.3508   48.2555   54.9001 C   0  0  0  0  0  0  0  0  0  0  0  0
   70.3086   49.1565   54.5040 N   0  0  0  0  0  0  0  0  0  0  0  0
   70.7163   49.2882   53.2692 N   0  0  0  0  0  0  0  0  0  0  0  0
   70.2441   48.5542   52.2419 C   0  0  0  0  0  0  0  0  0  0  0  0
   70.6671   48.7231   51.0896 O   0  0  0  0  0  0  0  0  0  0  0  0
   69.2773   47.6258   52.5707 C   0  0  0  0  0  0  0  0  0  0  0  0
   68.7562   46.8253   51.5972 C   0  0  0  0  0  0  0  0  0  0  0  0
   67.7898   45.8573   51.8807 C   0  0  0  0  0  0  0  0  0  0  0  0
   67.3957   45.7582   53.2010 C   0  0  0  0  0  0  0  0  0  0  0  0
   67.9115   46.5585   54.1949 C   0  0  0  0  0  0  0  0  0  0  0  0
   68.8534   47.4920   53.8711 C   0  0  0  0  0  0  0  0  0  0  0  0
  8  9  2  0
  9  1  1  0
  9 10  1  0
  1  2  2  0
  1  6  1  0
  2  3  1  0
  3 18  1  0
  3  4  2  0
 18 19  1  0
 19 20  2  0
 19 29  1  0
 20 21  1  0
 21 22  1  0
 22 23  2  0
 22 24  1  0
 24 25  1  0
 24 29  2  0
 25 26  2  0
 26 27  1  0
 27 28  2  0
 28 29  1  0
  4  5  1  0
  5  6  2  0
  6  7  1  0
 10 11  1  0
 10 15  1  0
 11 12  1  0
 12 13  1  0
 13 14  1  0
 14 16  1  6
 14 15  1  0
 16 17  1  0
M  END
>  <minimizedAffinity>  (1) 
-9.06563

$$$$
cs_full_output_folder/data/smiles/5113.pdb
     RDKit          3D

 31 34  0  0  0  0  0  0  0  0999 V2000
   71.5255   47.3137   58.9598 C   0  0  0  0  0  0  0  0  0  0  0  0
   70.5820   47.9667   58.1956 C   0  0  0  0  0  0  0  0  0  0  0  0
   69.7880   47.3082   57.3042 C   0  0  0  0  0  0  0  0  0  0  0  0
   69.9801   45.9196   57.2024 C   0  0  0  0  0  0  0  0  0  0  0  0
   70.9182   45.2489   57.9586 C   0  0  0  0  0  0  0  0  0  0  0  0
   71.7013   45.9529   58.8483 C   0  0  0  0  0  0  0  0  0  0  0  0
   72.6460   45.3250   59.6193 F   0  0  0  0  0  0  0  0  0  0  0  0
   72.2651   47.8205   61.1334 O   0  0  0  0  0  0  0  0  0  0  0  0
   72.3675   48.0752   59.9151 C   0  0  0  0  0  0  0  0  0  0  0  0
   73.2747   49.0730   59.4769 N   0  0  0  0  0  0  0  0  0  0  0  0
   74.0312   49.7289   60.5131 C   0  0  0  0  0  0  0  0  0  0  0  0
   75.3077   50.3371   59.9374 C   0  0  0  0  0  0  0  0  0  0  0  0
   76.0036   49.3320   59.0829 C   0  0  0  0  0  0  0  0  0  0  0  0
   75.7093   49.5130   57.6436 N   0  0  2  0  0  0  0  0  0  0  0  0
   74.5517   48.6879   57.4074 C   0  0  0  0  0  0  0  0  0  0  0  0
   73.3673   49.3554   58.0661 C   0  0  0  0  0  0  0  0  0  0  0  0
   76.8981   49.1055   56.9685 C   0  0  0  0  0  0  0  0  0  0  0  0
   77.2638   49.8282   55.7317 C   0  0  0  0  0  0  0  0  0  0  0  0
   77.4477   49.0885   54.5977 O   0  0  0  0  0  0  0  0  0  0  0  0
   68.7468   47.9621   56.4529 C   0  0  0  0  0  0  0  0  0  0  0  0
   69.1393   48.1869   55.0667 C   0  0  0  0  0  0  0  0  0  0  0  0
   70.0144   49.2035   54.7614 N   0  0  0  0  0  0  0  0  0  0  0  0
   70.4466   49.4305   53.5415 N   0  0  0  0  0  0  0  0  0  0  0  0
   70.0697   48.6896   52.4934 C   0  0  0  0  0  0  0  0  0  0  0  0
   70.4899   48.9125   51.3178 O   0  0  0  0  0  0  0  0  0  0  0  0
   69.1901   47.6429   52.6910 C   0  0  0  0  0  0  0  0  0  0  0  0
   68.7827   46.8859   51.6147 C   0  0  0  0  0  0  0  0  0  0  0  0
   67.8911   45.8572   51.8199 C   0  0  0  0  0  0  0  0  0  0  0  0
   67.4430   45.6311   53.1097 C   0  0  0  0  0  0  0  0  0  0  0  0
   67.8622   46.3992   54.1743 C   0  0  0  0  0  0  0  0  0  0  0  0
   68.7506   47.4280   53.9937 C   0  0  0  0  0  0  0  0  0  0  0  0
  8  9  2  0
  9  1  1  0
  9 10  1  0
  1  2  2  0
  1  6  1  0
  2  3  1  0
  3 20  1  0
  3  4  2  0
 20 21  1  0
 21 22  2  0
 21 31  1  0
 22 23  1  0
 23 24  1  0
 24 25  2  0
 24 26  1  0
 26 27  1  0
 26 31  2  0
 27 28  2  0
 28 29  1  0
 29 30  2  0
 30 31  1  0
  4  5  1  0
  5  6  2  0
  6  7  1  0
 10 11  1  0
 10 16  1  0
 11 12  1  0
 12 13  1  0
 13 14  1  0
 14 17  1  6
 14 15  1  0
 17 18  1  0
 18 19  1  0
 15 16  1  0
M  CHG  1  14   1
M  END
>  <minimizedAffinity>  (2) 
-9.76198

$$$$
cs_full_output_folder/data/smiles/1768.pdb
     RDKit          3D

 22 23  0  0  0  0  0  0  0  0999 V2000
   67.8055   43.8735   55.2872 N   0  0  0  0  0  0  0  0  0  0  0  0
   68.1771   45.2241   55.1194 C   0  0  0  0  0  0  0  0  0  0  0  0
   68.4113   45.8899   56.1546 O   0  0  0  0  0  0  0  0  0  0  0  0
   68.3054   45.8896   53.8228 C   0  0  0  0  0  0  0  0  0  0  0  0
   67.5537   45.4784   52.7333 C   0  0  0  0  0  0  0  0  0  0  0  0
   67.6606   46.0963   51.4962 C   0  0  0  0  0  0  0  0  0  0  0  0
   68.5276   47.1521   51.3019 C   0  0  0  0  0  0  0  0  0  0  0  0
   69.2845   47.5807   52.3636 C   0  0  0  0  0  0  0  0  0  0  0  0
   69.1631   46.9453   53.6025 C   0  0  0  0  0  0  0  0  0  0  0  0
   70.1760   48.6629   52.1690 N   0  0  0  0  0  0  0  0  0  0  0  0
   71.1144   48.9033   52.9602 O   0  0  0  0  0  0  0  0  0  0  0  0
   69.9928   49.4677   51.0740 O   0  0  0  0  0  0  0  0  0  0  0  0
   67.5048   41.2188   55.5045 O   0  0  0  0  0  0  0  0  0  0  0  0
   67.5290   41.8411   56.6087 C   0  0  0  0  0  0  0  0  0  0  0  0
   67.6871   43.2524   56.5369 N   0  0  0  0  0  0  0  0  0  0  0  0
   67.3998   41.1176   57.8611 C   0  0  0  0  0  0  0  0  0  0  0  0
   68.0171   39.9229   58.1360 C   0  0  0  0  0  0  0  0  0  0  0  0
   67.8676   39.2690   59.3385 C   0  0  0  0  0  0  0  0  0  0  0  0
   67.0682   39.8127   60.3339 C   0  0  0  0  0  0  0  0  0  0  0  0
   66.4441   41.0074   60.0742 C   0  0  0  0  0  0  0  0  0  0  0  0
   65.6568   41.5383   61.0593 F   0  0  0  0  0  0  0  0  0  0  0  0
   66.6106   41.6358   58.8678 C   0  0  0  0  0  0  0  0  0  0  0  0
 13 14  2  0
 14 15  1  0
 14 16  1  0
 15  1  1  0
  1  2  1  0
  2  3  2  0
  2  4  1  0
  4  5  2  0
  4  9  1  0
  5  6  1  0
  6  7  2  0
  7  8  1  0
  8 10  1  0
  8  9  2  0
 10 11  2  0
 10 12  1  0
 16 17  2  0
 16 22  1  0
 17 18  1  0
 18 19  2  0
 19 20  1  0
 20 21  1  0
 20 22  2  0
M  CHG  2  10   1  12  -1
M  END
>  <minimizedAffinity>  (3) 
-8.68868

$$$$
cs_full_output_folder/data/smiles/6810.pdb
     RDKit          3D

 23 25  0  0  0  0  0  0  0  0999 V2000
   68.9645   43.2879   56.7951 C   0  0  0  0  0  0  0  0  0  0  0  0
   70.1596   43.6289   57.4159 N   0  0  0  0  0  0  0  0  0  0  0  0
   70.9038   42.6897   58.0004 C   0  0  0  0  0  0  0  0  0  0  0  0
   72.1091   43.0346   58.6265 C   0  0  0  0  0  0  0  0  0  0  0  0
   72.8768   42.0738   59.2266 C   0  0  0  0  0  0  0  0  0  0  0  0
   72.5319   40.7402   59.2587 C   0  0  0  0  0  0  0  0  0  0  0  0
   71.3542   40.3918   58.6485 C   0  0  0  0  0  0  0  0  0  0  0  0
   70.5570   41.3598   58.0304 C   0  0  0  0  0  0  0  0  0  0  0  0
   69.4090   41.0247   57.4355 N   0  0  0  0  0  0  0  0  0  0  0  0
   68.6198   41.9678   56.8252 C   0  0  0  0  0  0  0  0  0  0  0  0
   67.3404   41.5131   56.2033 C   0  0  0  0  0  0  0  0  0  0  0  0
   67.4770   40.4332   55.3656 O   0  0  0  0  0  0  0  0  0  0  0  0
   68.2552   44.2787   56.2192 O   0  0  0  0  0  0  0  0  0  0  0  0
   68.7519   47.5372   53.6766 C   0  0  0  0  0  0  0  0  0  0  0  0
   68.1657   46.3942   53.2210 C   0  0  0  0  0  0  0  0  0  0  0  0
   67.9965   45.3112   54.0468 C   0  0  0  0  0  0  0  0  0  0  0  0
   68.4018   45.2991   55.3883 C   0  0  0  0  0  0  0  0  0  0  0  0
   68.9999   46.4955   55.8180 C   0  0  0  0  0  0  0  0  0  0  0  0
   69.1690   47.5769   54.9906 C   0  0  0  0  0  0  0  0  0  0  0  0
   70.2085   47.4703   51.3876 O   0  0  0  0  0  0  0  0  0  0  0  0
   69.7195   48.5899   51.6830 C   0  0  0  0  0  0  0  0  0  0  0  0
   69.9537   49.6793   50.8376 O   0  0  0  0  0  0  0  0  0  0  0  0
   68.9517   48.6900   52.8604 N   0  0  0  0  0  0  0  0  0  0  0  0
 20 21  2  0
 21 22  1  0
 21 23  1  0
 23 14  1  0
 14 15  2  0
 14 19  1  0
 15 16  1  0
 16 17  2  0
 17 13  1  0
 17 18  1  0
 13  1  1  0
  1  2  2  0
  1 10  1  0
  2  3  1  0
  3  4  2  0
  3  8  1  0
  4  5  1  0
  5  6  2  0
  6  7  1  0
  7  8  2  0
  8  9  1  0
  9 10  2  0
 10 11  1  0
 11 12  1  0
 18 19  2  0
M  END
>  <minimizedAffinity>  (4) 
-8.64072

$$$$
cs_full_output_folder/data/smiles/3372.pdb
     RDKit          3D

 26 28  0  0  0  0  0  0  0  0999 V2000
   74.4543   50.5137   56.1219 C   0  0  0  0  0  0  0  0  0  0  0  0
   73.3925   50.0036   56.8361 C   0  0  0  0  0  0  0  0  0  0  0  0
   72.0970   50.0537   56.3724 C   0  0  0  0  0  0  0  0  0  0  0  0
   71.8011   50.6379   55.1294 C   0  0  0  0  0  0  0  0  0  0  0  0
   72.8872   51.1331   54.4523 C   0  0  0  0  0  0  0  0  0  0  0  0
   74.1525   51.0770   54.9200 N   0  0  0  0  0  0  0  0  0  0  0  0
   76.8306   49.8179   55.8300 C   0  0  0  0  0  0  0  0  0  0  0  0
   76.4712   49.3140   54.7365 O   0  0  0  0  0  0  0  0  0  0  0  0
   75.8038   50.4567   56.5865 N   0  0  0  0  0  0  0  0  0  0  0  0
   79.0937   49.2137   55.3987 C   0  0  0  0  0  0  0  0  0  0  0  0
   78.2181   49.7279   56.2516 C   0  0  0  0  0  0  0  0  0  0  0  0
   82.2981   48.0325   57.0558 C   0  0  0  0  0  0  0  0  0  0  0  0
   80.8990   48.1927   56.6425 C   0  0  0  0  0  0  0  0  0  0  0  0
   80.4972   49.0991   55.7729 C   0  0  0  0  0  0  0  0  0  0  0  0
   70.4008   50.6534   54.6406 C   0  0  0  0  0  0  0  0  0  0  0  0
   70.0518   49.6078   53.6798 C   0  0  0  0  0  0  0  0  0  0  0  0
   70.3209   49.7788   52.3703 N   0  0  0  0  0  0  0  0  0  0  0  0
   70.0539   48.9058   51.4256 N   0  0  0  0  0  0  0  0  0  0  0  0
   69.4706   47.7477   51.7424 C   0  0  0  0  0  0  0  0  0  0  0  0
   69.1901   46.8672   50.8697 O   0  0  0  0  0  0  0  0  0  0  0  0
   69.1574   47.4926   53.0708 C   0  0  0  0  0  0  0  0  0  0  0  0
   69.4552   48.4313   54.0417 C   0  0  0  0  0  0  0  0  0  0  0  0
   69.1989   48.1401   55.4470 C   0  0  0  0  0  0  0  0  0  0  0  0
   68.2646   47.0108   55.7182 C   0  0  0  0  0  0  0  0  0  0  0  0
   68.0176   46.0642   54.6233 C   0  0  0  0  0  0  0  0  0  0  0  0
   68.4266   46.2883   53.4005 C   0  0  0  0  0  0  0  0  0  0  0  0
 12 13  1  0
 13 14  2  0
 14 10  1  0
 10 11  2  0
 11  7  1  0
  7  8  2  0
  7  9  1  0
  9  1  1  0
  1  2  2  0
  1  6  1  0
  2  3  1  0
  3  4  2  0
  4 15  1  0
  4  5  1  0
 15 16  1  0
 16 17  2  0
 16 22  1  0
 17 18  1  0
 18 19  1  0
 19 20  2  0
 19 21  1  0
 21 22  2  0
 21 26  1  0
 22 23  1  0
 23 24  1  0
 24 25  1  0
 25 26  2  0
  5  6  2  0
M  END
>  <minimizedAffinity>  (5) 
-8.81619

$$$$
cs_full_output_folder/data/smiles/3322.pdb
     RDKit          3D

 26 29  0  0  0  0  0  0  0  0999 V2000
   74.7784   35.2881   53.5759 C   0  0  0  0  0  0  0  0  0  0  0  0
   73.4359   35.5546   53.6304 C   0  0  0  0  0  0  0  0  0  0  0  0
   72.6994   35.3400   54.8043 C   0  0  0  0  0  0  0  0  0  0  0  0
   73.3462   34.8595   55.8931 C   0  0  0  0  0  0  0  0  0  0  0  0
   74.7302   34.5919   55.8170 C   0  0  0  0  0  0  0  0  0  0  0  0
   75.3762   34.8155   54.6765 N   0  0  0  0  0  0  0  0  0  0  0  0
   72.7696   34.5437   57.1867 C   0  0  0  0  0  0  0  0  0  0  0  0
   72.6832   33.2497   57.6119 N   0  0  0  0  0  0  0  0  0  0  0  0
   72.1129   32.9375   58.7605 N   0  0  0  0  0  0  0  0  0  0  0  0
   71.5872   33.8736   59.5662 C   0  0  0  0  0  0  0  0  0  0  0  0
   71.0426   33.5578   60.6640 O   0  0  0  0  0  0  0  0  0  0  0  0
   71.6359   35.2180   59.1970 C   0  0  0  0  0  0  0  0  0  0  0  0
   72.2396   35.5242   57.9958 C   0  0  0  0  0  0  0  0  0  0  0  0
   72.4227   36.9165   57.5988 C   0  0  0  0  0  0  0  0  0  0  0  0
   71.5006   37.8735   58.2438 C   0  0  0  0  0  0  0  0  0  0  0  0
   70.9100   37.4581   59.5183 C   0  0  0  0  0  0  0  0  0  0  0  0
   70.9562   36.2284   59.9819 C   0  0  0  0  0  0  0  0  0  0  0  0
   75.0898   33.4522   51.5177 O   0  0  0  0  0  0  0  0  0  0  0  0
   75.7027   34.5538   51.3841 C   0  0  0  0  0  0  0  0  0  0  0  0
   75.5569   35.4911   52.4120 N   0  0  0  0  0  0  0  0  0  0  0  0
   76.5115   34.8167   50.2189 C   0  0  0  0  0  0  0  0  0  0  0  0
   77.5695   35.6849   50.1736 C   0  0  0  0  0  0  0  0  0  0  0  0
   78.3093   35.8926   49.0141 C   0  0  0  0  0  0  0  0  0  0  0  0
   77.9984   35.2221   47.8545 C   0  0  0  0  0  0  0  0  0  0  0  0
   76.9353   34.3444   47.8833 C   0  0  0  0  0  0  0  0  0  0  0  0
   76.2074   34.1454   49.0370 C   0  0  0  0  0  0  0  0  0  0  0  0
 18 19  2  0
 19 20  1  0
 19 21  1  0
 20  1  1  0
  1  2  2  0
  1  6  1  0
  2  3  1  0
  3  4  2  0
  4  7  1  0
  4  5  1  0
  7  8  2  0
  7 13  1  0
  8  9  1  0
  9 10  1  0
 10 11  2  0
 10 12  1  0
 12 13  2  0
 12 17  1  0
 13 14  1  0
 14 15  1  0
 15 16  1  0
 16 17  2  0
  5  6  2  0
 21 22  2  0
 21 26  1  0
 22 23  1  0
 23 24  2  0
 24 25  1  0
 25 26  2  0
M  END
>  <minimizedAffinity>  (6) 
-8.85723

$$$$
cs_full_output_folder/data/smiles/196.pdb
     RDKit          3D

 25 28  0  0  0  0  0  0  0  0999 V2000
   70.4584   51.5974   55.9131 N   0  0  0  0  0  0  0  0  0  0  0  0
   69.3215   51.1589   56.6091 C   0  0  0  0  0  0  0  0  0  0  0  0
   68.0499   51.6141   56.2367 C   0  0  0  0  0  0  0  0  0  0  0  0
   66.8831   51.2106   56.8570 C   0  0  0  0  0  0  0  0  0  0  0  0
   66.9209   50.3299   57.8852 C   0  0  0  0  0  0  0  0  0  0  0  0
   68.1381   49.8521   58.2910 C   0  0  0  0  0  0  0  0  0  0  0  0
   69.3129   50.2648   57.6588 C   0  0  0  0  0  0  0  0  0  0  0  0
   71.3747   50.5302   55.4059 C   0  0  0  0  0  0  0  0  0  0  0  0
   70.1997   49.1249   51.0614 O   0  0  0  0  0  0  0  0  0  0  0  0
   70.1317   48.9869   52.3073 C   0  0  0  0  0  0  0  0  0  0  0  0
   70.7864   49.8249   53.1181 N   0  0  0  0  0  0  0  0  0  0  0  0
   70.6926   49.6512   54.4441 C   0  0  0  0  0  0  0  0  0  0  0  0
   69.9423   48.6373   54.9651 N   0  0  0  0  0  0  0  0  0  0  0  0
   69.2883   47.8004   54.1652 C   0  0  0  0  0  0  0  0  0  0  0  0
   68.5140   46.7575   54.6741 C   0  0  0  0  0  0  0  0  0  0  0  0
   67.8621   45.9252   53.8033 C   0  0  0  0  0  0  0  0  0  0  0  0
   67.9378   46.0777   52.4408 C   0  0  0  0  0  0  0  0  0  0  0  0
   68.6942   47.0977   51.9342 C   0  0  0  0  0  0  0  0  0  0  0  0
   69.3537   47.9388   52.8043 C   0  0  0  0  0  0  0  0  0  0  0  0
   70.8959   52.8853   55.5369 C   0  0  0  0  0  0  0  0  0  0  0  0
   72.0275   53.5509   56.0985 C   0  0  0  0  0  0  0  0  0  0  0  0
   72.3012   53.6499   57.4641 C   0  0  0  0  0  0  0  0  0  0  0  0
   73.4588   54.3473   57.6251 C   0  0  0  0  0  0  0  0  0  0  0  0
   73.8782   54.6674   56.3508 C   0  0  0  0  0  0  0  0  0  0  0  0
   73.0199   54.1857   55.5044 O   0  0  0  0  0  0  0  0  0  0  0  0
  9 10  2  0
 10 11  1  0
 10 19  1  0
 11 12  1  0
 12  8  1  0
 12 13  2  0
  8  1  1  0
  1 20  1  0
  1  2  1  0
 20 21  1  0
 21 22  2  0
 21 25  1  0
 22 23  1  0
 23 24  2  0
 24 25  1  0
  2  3  2  0
  2  7  1  0
  3  4  1  0
  4  5  2  0
  5  6  1  0
  6  7  2  0
 13 14  1  0
 14 15  1  0
 14 19  2  0
 15 16  2  0
 16 17  1  0
 17 18  2  0
 18 19  1  0
M  END
>  <minimizedAffinity>  (7) 
-8.60099

$$$$
cs_full_output_folder/data/smiles/1670.pdb
     RDKit          3D

 26 29  0  0  0  0  0  0  0  0999 V2000
   71.4378   47.2436   58.8451 C   0  0  0  0  0  0  0  0  0  0  0  0
   71.5799   45.8701   58.6926 C   0  0  0  0  0  0  0  0  0  0  0  0
   70.7499   45.2025   57.8184 C   0  0  0  0  0  0  0  0  0  0  0  0
   69.7810   45.8657   57.0932 C   0  0  0  0  0  0  0  0  0  0  0  0
   69.6141   47.2350   57.2234 C   0  0  0  0  0  0  0  0  0  0  0  0
   70.4601   47.8665   58.1045 C   0  0  0  0  0  0  0  0  0  0  0  0
   72.1204   47.9313   60.9920 O   0  0  0  0  0  0  0  0  0  0  0  0
   72.2845   48.0033   59.7429 C   0  0  0  0  0  0  0  0  0  0  0  0
   73.2996   48.8351   59.2282 N   0  0  0  0  0  0  0  0  0  0  0  0
   74.1403   49.5906   60.1484 C   0  0  0  0  0  0  0  0  0  0  0  0
   75.3744   50.0172   59.4068 C   0  0  0  0  0  0  0  0  0  0  0  0
   75.8392   48.7902   58.6215 C   0  0  0  0  0  0  0  0  0  0  0  0
   74.9426   48.5347   57.4546 C   0  0  0  0  0  0  0  0  0  0  0  0
   73.5371   48.9831   57.8158 C   0  0  0  0  0  0  0  0  0  0  0  0
   68.6049   48.0118   56.4165 C   0  0  0  0  0  0  0  0  0  0  0  0
   69.0604   48.1788   55.0621 N   0  0  0  0  0  0  0  0  0  0  0  0
   69.9821   49.1488   54.7837 C   0  0  0  0  0  0  0  0  0  0  0  0
   70.4683   49.3745   53.5404 C   0  0  0  0  0  0  0  0  0  0  0  0
   70.0472   48.6231   52.4822 C   0  0  0  0  0  0  0  0  0  0  0  0
   70.5071   48.8360   51.3144 O   0  0  0  0  0  0  0  0  0  0  0  0
   69.1246   47.6441   52.7295 C   0  0  0  0  0  0  0  0  0  0  0  0
   68.6734   46.8536   51.6912 C   0  0  0  0  0  0  0  0  0  0  0  0
   67.7490   45.8623   51.9417 C   0  0  0  0  0  0  0  0  0  0  0  0
   67.3107   45.6965   53.2019 N   0  0  0  0  0  0  0  0  0  0  0  0
   67.7406   46.4590   54.2224 C   0  0  0  0  0  0  0  0  0  0  0  0
   68.6587   47.4541   54.0148 C   0  0  0  0  0  0  0  0  0  0  0  0
  7  8  2  0
  8  1  1  0
  8  9  1  0
  1  2  2  0
  1  6  1  0
  2  3  1  0
  3  4  2  0
  4  5  1  0
  5 15  1  0
  5  6  2  0
 15 16  1  0
 16 17  1  0
 16 26  1  0
 17 18  2  0
 18 19  1  0
 19 20  2  0
 19 21  1  0
 21 22  1  0
 21 26  2  0
 22 23  2  0
 23 24  1  0
 24 25  2  0
 25 26  1  0
  9 10  1  0
  9 14  1  0
 10 11  1  0
 11 12  1  0
 12 13  1  0
 13 14  1  0
M  END
>  <minimizedAffinity>  (8) 
-8.64525

$$$$
cs_full_output_folder/data/smiles/3344.pdb
     RDKit          3D

 33 37  0  0  0  0  0  0  0  0999 V2000
   69.5726   47.0231   57.1412 C   0  0  0  0  0  0  0  0  0  0  0  0
   69.5309   45.6287   56.9808 C   0  0  0  0  0  0  0  0  0  0  0  0
   70.3632   44.8345   57.7332 C   0  0  0  0  0  0  0  0  0  0  0  0
   71.2443   45.3899   58.6487 C   0  0  0  0  0  0  0  0  0  0  0  0
   72.0476   44.5871   59.3706 F   0  0  0  0  0  0  0  0  0  0  0  0
   71.3066   46.7362   58.8265 C   0  0  0  0  0  0  0  0  0  0  0  0
   70.4507   47.5347   58.0503 C   0  0  0  0  0  0  0  0  0  0  0  0
   72.2005   47.4055   59.7663 C   0  0  0  0  0  0  0  0  0  0  0  0
   71.7666   47.4677   60.9669 O   0  0  0  0  0  0  0  0  0  0  0  0
   73.4469   47.9474   59.3961 N   0  0  0  0  0  0  0  0  0  0  0  0
   73.8888   47.8480   58.0304 C   0  0  0  0  0  0  0  0  0  0  0  0
   75.3829   47.9986   57.8915 C   0  0  0  0  0  0  0  0  0  0  0  0
   75.8500   49.1781   58.5486 N   0  0  0  0  0  0  0  0  0  0  0  0
   75.1473   49.6767   59.7090 C   0  0  0  0  0  0  0  0  0  0  0  0
   74.2948   48.6073   60.3572 C   0  0  0  0  0  0  0  0  0  0  0  0
   77.0080   49.8962   58.1019 C   0  0  0  0  0  0  0  0  0  0  0  0
   78.0705   50.1410   58.9355 C   0  0  0  0  0  0  0  0  0  0  0  0
   79.1902   50.8382   58.4736 C   0  0  0  0  0  0  0  0  0  0  0  0
   79.2387   51.2881   57.1733 C   0  0  0  0  0  0  0  0  0  0  0  0
   78.1575   51.0274   56.3608 C   0  0  0  0  0  0  0  0  0  0  0  0
   77.0919   50.3515   56.8402 N   0  0  0  0  0  0  0  0  0  0  0  0
   68.6388   47.8465   56.3379 C   0  0  0  0  0  0  0  0  0  0  0  0
   70.3816   49.0179   51.2563 O   0  0  0  0  0  0  0  0  0  0  0  0
   70.0325   48.6933   52.4203 C   0  0  0  0  0  0  0  0  0  0  0  0
   70.6267   49.3729   53.5691 C   0  0  0  0  0  0  0  0  0  0  0  0
   70.0243   49.0037   54.8058 N   0  0  0  0  0  0  0  0  0  0  0  0
   69.1521   48.0881   54.9781 C   0  0  0  0  0  0  0  0  0  0  0  0
   68.6111   47.3456   53.8642 C   0  0  0  0  0  0  0  0  0  0  0  0
   69.0234   47.6278   52.6541 C   0  0  0  0  0  0  0  0  0  0  0  0
   68.5016   46.9311   51.4491 C   0  0  0  0  0  0  0  0  0  0  0  0
   67.5293   45.8308   51.7460 C   0  0  0  0  0  0  0  0  0  0  0  0
   67.9490   45.1880   53.0491 C   0  0  0  0  0  0  0  0  0  0  0  0
   67.6572   46.2629   54.1160 C   0  0  0  0  0  0  0  0  0  0  0  0
 23 24  2  0
 24 25  1  0
 24 29  1  0
 25 26  1  0
 26 27  2  0
 27 22  1  0
 27 28  1  0
 22  1  1  0
  1  2  2  0
  1  7  1  0
  2  3  1  0
  3  4  2  0
  4  5  1  0
  4  6  1  0
  6  8  1  0
  6  7  2  0
  8  9  2  0
  8 10  1  0
 10 11  1  0
 10 15  1  0
 11 12  1  0
 12 13  1  0
 13 16  1  0
 13 14  1  0
 16 17  2  0
 16 21  1  0
 17 18  1  0
 18 19  2  0
 19 20  1  0
 20 21  2  0
 14 15  1  0
 28 29  2  0
 28 33  1  0
 29 30  1  0
 30 31  1  0
 31 32  1  0
 32 33  1  0
M  END
>  <minimizedAffinity>  (9) 
-9.13268

$$$$
cs_full_output_folder/data/smiles/326.pdb
     RDKit          3D

 33 37  0  0  0  0  0  0  0  0999 V2000
   71.6658   47.0389   58.9236 C   0  0  0  0  0  0  0  0  0  0  0  0
   70.6707   47.7533   58.2367 C   0  0  0  0  0  0  0  0  0  0  0  0
   69.7798   47.1197   57.4153 C   0  0  0  0  0  0  0  0  0  0  0  0
   69.9069   45.7409   57.2925 C   0  0  0  0  0  0  0  0  0  0  0  0
   70.8752   45.0153   57.9539 C   0  0  0  0  0  0  0  0  0  0  0  0
   71.7688   45.6844   58.7850 C   0  0  0  0  0  0  0  0  0  0  0  0
   72.7194   44.9623   59.4336 F   0  0  0  0  0  0  0  0  0  0  0  0
   72.2625   47.9564   60.9810 O   0  0  0  0  0  0  0  0  0  0  0  0
   72.6003   47.7551   59.7937 C   0  0  0  0  0  0  0  0  0  0  0  0
   73.8550   48.2208   59.3419 N   0  0  0  0  0  0  0  0  0  0  0  0
   74.6525   48.9100   60.3323 C   0  0  0  0  0  0  0  0  0  0  0  0
   74.5953   50.4015   60.0397 C   0  0  0  0  0  0  0  0  0  0  0  0
   73.4472   50.7124   59.1298 C   0  0  0  0  0  0  0  0  0  0  0  0
   73.7502   50.3949   57.7283 N   0  0  0  0  0  0  0  0  0  0  0  0
   73.1675   51.2980   56.8352 C   0  0  0  0  0  0  0  0  0  0  0  0
   72.4453   52.2617   57.2820 O   0  0  0  0  0  0  0  0  0  0  0  0
   74.5413   49.3008   57.2347 C   0  0  0  0  0  0  0  0  0  0  0  0
   74.2334   47.9853   57.9711 C   0  0  0  0  0  0  0  0  0  0  0  0
   73.3112   51.2473   55.3690 C   0  0  0  0  0  0  0  0  0  0  0  0
   72.6803   52.3600   54.5677 C   0  0  0  0  0  0  0  0  0  0  0  0
   74.1762   52.3474   54.7735 C   0  0  0  0  0  0  0  0  0  0  0  0
   68.6914   47.7727   56.6515 C   0  0  0  0  0  0  0  0  0  0  0  0
   69.1663   48.0474   55.2886 C   0  0  0  0  0  0  0  0  0  0  0  0
   70.0977   49.0199   55.1444 N   0  0  0  0  0  0  0  0  0  0  0  0
   70.6386   49.3163   53.9810 N   0  0  0  0  0  0  0  0  0  0  0  0
   70.3102   48.6789   52.8444 C   0  0  0  0  0  0  0  0  0  0  0  0
   70.8305   48.9638   51.7333 O   0  0  0  0  0  0  0  0  0  0  0  0
   69.3646   47.6788   52.9286 C   0  0  0  0  0  0  0  0  0  0  0  0
   68.9532   46.9805   51.8078 C   0  0  0  0  0  0  0  0  0  0  0  0
   67.9982   45.9936   51.8831 C   0  0  0  0  0  0  0  0  0  0  0  0
   67.4419   45.7035   53.1302 C   0  0  0  0  0  0  0  0  0  0  0  0
   67.8296   46.3818   54.2706 C   0  0  0  0  0  0  0  0  0  0  0  0
   68.7843   47.3589   54.1691 C   0  0  0  0  0  0  0  0  0  0  0  0
  8  9  2  0
  9  1  1  0
  9 10  1  0
  1  2  2  0
  1  6  1  0
  2  3  1  0
  3 22  1  0
  3  4  2  0
 22 23  1  0
 23 24  2  0
 23 33  1  0
 24 25  1  0
 25 26  1  0
 26 27  2  0
 26 28  1  0
 28 29  1  0
 28 33  2  0
 29 30  2  0
 30 31  1  0
 31 32  2  0
 32 33  1  0
  4  5  1  0
  5  6  2  0
  6  7  1  0
 10 11  1  0
 10 18  1  0
 11 12  1  0
 12 13  1  0
 13 14  1  0
 14 15  1  0
 14 17  1  0
 15 16  2  0
 15 19  1  0
 19 20  1  0
 19 21  1  0
 20 21  1  0
 17 18  1  0
M  END
>  <minimizedAffinity>  (10) 
-9.33814

$$$$
